Tesis UCR/base_5bus.cf
 10/11/12 POWER TECHNOLOGIES     100.0 0    0
BUS DATA FOLLOWS                      5 ITEMS
   1 L1            1  1  0 1.0000   0.00     1.50     0.75     0.00    0.00  138.00 1.0000    0.00    0.00  0.0000  0.0000    0    1
   2 L2            1  1  0 1.0000   0.00     0.50     0.25     0.00    0.00  138.00 0.0000    0.00    0.00  0.0000  0.0000    0    2
   3 G3            1  1  2 1.0500   0.00     0.00     0.00     1.00    0.00  138.00 1.0000    0.75   -0.75  0.0000  0.0000    0    3
   4 G4            1  1  2 1.0500   0.00     0.00     0.00     0.75    0.00  138.00 0.0000    0.75   -0.75  0.0000  0.0000    0    4
   5 G5            1  1  3 1.0500   0.00     0.00     0.00     0.31    0.00  138.00 0.0000    0.50   -0.50  0.0000  0.0000    0    5   
-999
BRANCH DATA FOLLOWS                   3 ITEMS
   1    2  0  0 1 0  0.002000  0.010000   0.00100     1000  0     0    0 0  0.0000    0.00 0.0000 0.00000.00000  0.0000 0.0000     1
   1    3  0  0 1 0  0.004000  0.020000   0.00200     1000  0     0    0 0  0.0000    0.00 0.0000 0.00000.00000  0.0000 0.0000     2
   1    4  0  0 1 0  0.002000  0.010000   0.00100     1000  0     0    0 0  0.0000    0.00 0.0000 0.00000.00000  0.0000 0.0000     3
   2    5  0  0 1 0  0.004000  0.020000   0.00200     1000  0     0    0 0  0.0000    0.00 0.0000 0.00000.00000  0.0000 0.0000     4
   3    4  0  0 1 0  0.004000  0.020000   0.00200     1000  0     0    0 0  0.0000    0.00 0.0000 0.00000.00000  0.0000 0.0000     5
   4    5  0  0 1 0  0.004000  0.020000   0.00200     1000  0     0    0 0  0.0000    0.00 0.0000 0.00000.00000  0.0000 0.0000     6
-999
LOSS ZONES FOLLOWS                    0 ITEMS
-99
INTERCHANGE DATA FOLLOWS              1 ITEMS
 1    1 ALTA             0.0 999.99  0                                                                                             1
-9
TIE LINES FOLLOW                      0 ITEMS
-999
END OF DATA
